Circuit: * C:\Users\LinKaihong\Dropbox\ILE\Summer\Summer 2023 production file\LTspice\Draft1.asc

Limiting rise time of source v1 to 0.0001
Limiting fall time of source v1 to 0.0001
Direct Newton iteration for .op point succeeded.

Date: Thu Jun 08 10:07:10 2023
Total elapsed time: 0.124 seconds.

tnom = 27
temp = 27
method = modified trap
totiter = 38577
traniter = 38573
tranpoints = 18538
accept = 15029
rejected = 3509
matrix size = 5
fillins = 0
solver = Alternate
Matrix Compiler1: 228 bytes object code size  0.1/0.1/[0.0]
Matrix Compiler2: 347 bytes object code size  0.1/0.1/[0.0]

