Circuit: * C:\Users\LinKaihong\Dropbox\ILE\Summer\Summer 2023 production file\LTspice\sensor circuit.asc

WARNING: Node NC_02 is floating.
WARNING: Node NC_06 is floating.
WARNING: Node NC_07 is floating.
WARNING: Node NC_09 is floating.
WARNING: Node NC_11 is floating.
WARNING: Node NC_12 is floating.
WARNING: Node NC_13 is floating.

WARNING: Less than two connections to node NC_01.  This node is used by B2.
WARNING: Less than two connections to node NC_02.  This node is used by B2.
WARNING: Less than two connections to node NC_03.  This node is used by R3.
WARNING: Less than two connections to node N014.  This node is used by Q:U6:7.
WARNING: Less than two connections to node NC_06.  This node is used by C4.
WARNING: Less than two connections to node NC_07.  This node is used by C4.
WARNING: Less than two connections to node NC_08.  This node is used by V3.
WARNING: Less than two connections to node NC_09.  This node is used by V3.
WARNING: Less than two connections to node NC_10.  This node is used by V5.
WARNING: Less than two connections to node NC_11.  This node is used by V5.
WARNING: Less than two connections to node NC_12.  This node is used by C5.
WARNING: Less than two connections to node NC_13.  This node is used by C5.
Direct Newton iteration failed to find .op point.  (Use ".option noopiter" to skip.)
Starting Gmin stepping
Gmin = 10
Gmin = 1.07374
Gmin = 0.115292
Gmin = 0.0123794
Gmin = 0.00132923
vernier = 0.5
vernier = 0.25
vernier = 0.125
vernier = 0.0625
Gmin = 0.00100083
vernier = 0.03125
vernier = 0.015625
vernier = 0.0078125
vernier = 0.00390625
vernier = 0.00195313
Gmin = 0.00100083
vernier = 0.000976563
vernier = 0.000488281
Gmin = 0
Gmin stepping failed

Starting source stepping with srcstepmethod=0
Source Step = 3.0303%
Source Step = 33.3333%
Source Step = 63.6364%
Source Step = 93.9394%
Source stepping succeeded in finding the operating point.

Changing Tseed to 1e-008
Changing Tseed to 1e-010

Date: Fri Jun 09 12:56:32 2023
Total elapsed time: 8.698 seconds.

tnom = 27
temp = 27
method = modified trap
totiter = 253409
traniter = 251254
tranpoints = 60295
accept = 44911
rejected = 15382
matrix size = 142
fillins = 353
solver = Alternate
Thread vector: 29.6/11.3[4] 12.0/4.7[4] 7.6/4.5[4] 1.7/1.8[1]  2592/500
Matrix Compiler1: 30.48 KB object code size  8.0/6.2/[4.6]
Matrix Compiler2: 21.80 KB object code size  2.7/4.8/[2.6]

